.MODEL D1N4007 D(IS=868.8F RS=81.71M N=1 XTI=3 EG=1.11 BV=1K IBV=10U CJO=1P
+  VJ=.75 M=.3333 FC=.5 TT=5N)
